*SPEF "1481-1998"
*DESIGN "top"
*DATE "Wed Dec 10 12:57:05 2025"
*VENDOR "Synopsys, Inc."
*PROGRAM "icc2 /packages/synopsys/icc2/S-2021.06-SP5-1/linux64/nwtn/bin/icc2_exec"
*VERSION "S-2021.06-SP5-1 Oct 15, 2022"
*DESIGN_FLOW "ICC2 SPEF DR"
*DIVIDER /
*DELIMITER :
*BUS_DELIMITER [ ]
*T_UNIT 1 NS
*C_UNIT 1 FF
*R_UNIT 1 OHM
*L_UNIT 1 HENRY

// XY_UNIT 1 UM
// PARASITIC_TECH tlup_max at 125.000 degree

*NAME_MAP
*1 clock
*2 start
*3 BestDist[7]
*4 BestDist[6]
*5 BestDist[5]
*6 BestDist[4]
*7 BestDist[3]
*8 BestDist[2]
*9 BestDist[1]
*10 BestDist[0]
*11 motionX[3]
*12 motionX[2]
*13 motionX[1]
*14 motionX[0]
*15 motionY[3]
*16 motionY[2]
*17 motionY[1]
*18 motionY[0]
*19 AddressR[7]
*20 AddressR[6]
*21 AddressR[5]
*22 AddressR[4]
*23 AddressR[3]
*24 AddressR[2]
*25 AddressR[1]
*26 AddressR[0]
*27 AddressS1[9]
*28 AddressS1[8]
*29 AddressS1[7]
*30 AddressS1[6]
*31 AddressS1[5]
*32 AddressS1[4]
*33 AddressS1[3]
*34 AddressS1[2]
*35 AddressS1[1]
*36 AddressS1[0]
*37 AddressS2[9]
*38 AddressS2[8]
*39 AddressS2[7]
*40 AddressS2[6]
*41 AddressS2[5]
*42 AddressS2[4]
*43 AddressS2[3]
*44 AddressS2[2]
*45 AddressS2[1]
*46 AddressS2[0]
*47 R[7]
*48 R[6]
*49 R[5]
*50 R[4]
*51 R[3]
*52 R[2]
*53 R[1]
*54 R[0]
*55 S1[7]
*56 S1[6]
*57 S1[5]
*58 S1[4]
*59 S1[3]
*60 S1[2]
*61 S1[1]
*62 S1[0]
*63 S2[7]
*64 S2[6]
*65 S2[5]
*66 S2[4]
*67 S2[3]
*68 S2[2]
*69 S2[1]
*70 S2[0]
*71 completed
*72 VDD
*73 VSS
*74 optlc_2640
*75 optlc_2641
*76 ctl_u/count_reg[0]
*77 ctl_u/count_reg[1]
*78 ctl_u/count_reg[2]
*79 ctl_u/count_reg[3]
*80 ctl_u/U4
*81 ctl_u/U5
*82 ctl_u/U6
*83 ctl_u/U8
*84 ctl_u/U9
*85 ctl_u/U10
*86 ctl_u/U11
*87 ctl_u/U12
*88 ctl_u/U13
*89 ctl_u/U14
*90 ctl_u/U15
*91 ctl_u/U16
*92 ctl_u/U17
*93 ctl_u/U19
*94 ctl_u/U20
*95 ctl_u/U21
*96 ctl_u/U23
*97 ctl_u/U24
*98 ctl_u/U26
*99 ctl_u/U28
*100 ctl_u/U29
*101 ctl_u/U30
*102 ctl_u/U31
*103 ctl_u/U32
*104 ctl_u/U33
*105 ctl_u/U34
*106 ctl_u/U35
*107 ctl_u/U36
*108 ctl_u/U37
*109 ctl_u/U38
*110 ctl_u/U39
*111 ctl_u/U40
*112 ctl_u/U41
*113 ctl_u/U42
*114 ctl_u/U43
*115 ctl_u/U44
*116 ctl_u/U45
*117 ctl_u/U47
*118 ctl_u/U48
*119 ctl_u/U49
*120 ctl_u/U51
*121 ctl_u/U52
*122 ctl_u/U53
*123 ctl_u/U54
*124 ctl_u/U55
*125 ctl_u/U56
*126 ctl_u/U57
*127 ctl_u/U58
*128 ctl_u/U59
*129 ctl_u/U60
*130 ctl_u/U61
*131 ctl_u/U62
*132 ctl_u/U63
*133 ctl_u/U64
*134 ctl_u/U65
*135 ctl_u/U69
*136 ctl_u/U70
*137 ctl_u/U72
*138 ctl_u/U73
*139 ctl_u/U74
*140 ctl_u/U76
*141 ctl_u/U77
*142 ctl_u/U78
*143 ctl_u/U81
*144 ctl_u/add_123/U1_1
*145 ctl_u/add_123/U1_2
*146 ctl_u/add_123/U1_3
*147 ctl_u/add_126/U1_1
*148 ctl_u/add_126/U1_2
*149 ctl_u/add_126/U1_3
*150 ctl_u/count_reg[4]
*151 ctl_u/count_reg[7]
*152 ctl_u/count_reg[8]
*153 ctl_u/count_reg[6]
*154 ctl_u/count_reg[9]
*155 ctl_u/count_reg[5]
*156 ctl_u/count_reg[11]
*157 ctl_u/\*cell\*1429
*158 ctl_u/count_reg[10]
*159 ctl_u/U18
*160 ctl_u/U22
*161 ctl_u/U25
*162 ctl_u/U27
*163 ctl_u/U50
*164 ctl_u/U66
*165 ctl_u/U67
*166 ctl_u/U68
*167 ctl_u/U71
*168 ctl_u/U75
*169 ctl_u/U79
*170 ctl_u/U80
*171 ctl_u/U82
*172 ctl_u/U83
*173 ctl_u/U84
*174 ctl_u/U85
*175 ctl_u/U86
*176 ctl_u/U87
*177 ctl_u/U88
*178 ctl_u/U89
*179 ctl_u/U90
*180 ctl_u/U91
*181 ctl_u/U92
*182 ctl_u/U93
*183 ctl_u/U94
*184 ctl_u/U95
*185 ctl_u/U96
*186 ctl_u/U97
*187 ctl_u/U98
*188 ctl_u/U99
*189 ctl_u/U100
*190 ctl_u/U101
*191 ctl_u/U102
*192 ctl_u/U103
*193 ctl_u/U104
*194 ctl_u/U105
*195 ctl_u/U106
*196 ctl_u/U107
*197 ctl_u/U108
*198 ctl_u/U109
*199 ctl_u/U110
*200 ctl_u/U111
*201 ctl_u/count_reg[12]/U3
*202 ctl_u/count_reg[12]
*203 ctl_u/U3
*204 ctl_u/U7
*205 ctl_u/add_113/U1_1_11
*206 ctl_u/add_113/U1_1_10
*207 ctl_u/add_113/U1_1_9
*208 ctl_u/add_113/U1_1_8
*209 ctl_u/add_113/U1_1_7
*210 ctl_u/add_113/U1_1_6
*211 ctl_u/add_113/U1_1_5
*212 ctl_u/add_113/U1_1_4
*213 ctl_u/add_113/U1_1_3
*214 ctl_u/add_113/U1_1_2
*215 ctl_u/add_113/U1_1_1
*216 ctl_u/add_113/U1
*217 ctl_u/add_113/U2
*218 pe_u/pe0/Rpipe_reg[7]
*219 pe_u/pe0/Accumulate_reg[0]
*220 pe_u/pe0/Accumulate_reg[7]
*221 pe_u/pe0/Accumulate_reg[6]
*222 pe_u/pe0/Accumulate_reg[5]
*223 pe_u/pe0/Accumulate_reg[4]
*224 pe_u/pe0/Accumulate_reg[3]
*225 pe_u/pe0/Accumulate_reg[2]
*226 pe_u/pe0/Accumulate_reg[1]
*227 pe_u/pe0/U3
*228 pe_u/pe0/U4
*229 pe_u/pe0/U5
*230 pe_u/pe0/U10
*231 pe_u/pe0/U11
*232 pe_u/pe0/U12
*233 pe_u/pe0/U13
*234 pe_u/pe0/U14
*235 pe_u/pe0/U15
*236 pe_u/pe0/U16
*237 pe_u/pe0/U17
*238 pe_u/pe0/U18
*239 pe_u/pe0/U19
*240 pe_u/pe0/U20
*241 pe_u/pe0/U21
*242 pe_u/pe0/U22
*243 pe_u/pe0/U23
*244 pe_u/pe0/Rpipe_reg[4]
*245 pe_u/pe0/Rpipe_reg[5]
*246 pe_u/pe0/Rpipe_reg[6]
*247 pe_u/pe0/Rpipe_reg[3]
*248 pe_u/pe0/Rpipe_reg[0]
*249 pe_u/pe0/Rpipe_reg[2]
*250 pe_u/pe0/Rpipe_reg[1]
*251 pe_u/pe0/U6
*252 pe_u/pe0/add_52/U1_7
*253 pe_u/pe0/add_52/U1_6
*254 pe_u/pe0/add_52/U1_5
*255 pe_u/pe0/add_52/U1_4
*256 pe_u/pe0/add_52/U1_3
*257 pe_u/pe0/add_52/U1_2
*258 pe_u/pe0/add_52/U1_1
*259 comp_u/ctmTdsLR_1_53
*260 comp_u/ctmTdsLR_2_54
*261 pe_u/pe1/sub_46/ctmTdsLR_1_2626
*262 comp_u/ctmTdsLR_1_2615
*263 pe_u/pe0/add_52/U4
*264 pe_u/pe0/sub_46/U2_7
*265 pe_u/pe0/sub_46/U2_6
*266 pe_u/pe0/sub_46/U2_5
*267 pe_u/pe0/sub_46/U2_4
*268 pe_u/pe0/sub_46/U2_3
*269 pe_u/pe0/sub_46/U2_2
*270 pe_u/pe0/sub_46/U2_1
*271 pe_u/pe0/sub_46/U1
*272 pe_u/pe0/sub_46/U2
*273 pe_u/pe0/sub_46/U3
*274 pe_u/pe0/sub_46/U4
*275 pe_u/pe0/sub_46/U5
*276 pe_u/pe0/sub_46/U6
*277 pe_u/pe0/sub_46/U7
*278 pe_u/pe0/sub_46/U8
*279 pe_u/pe0/sub_46/U9
*280 pe_u/pe0/sub_46/U10
*281 pe_u/pe0/sub_46/U11
*282 pe_u/pe1/Accumulate_reg[0]
*283 pe_u/pe1/Accumulate_reg[7]
*284 pe_u/pe1/Accumulate_reg[6]
*285 pe_u/pe1/Accumulate_reg[5]
*286 pe_u/pe1/Accumulate_reg[4]
*287 pe_u/pe1/Accumulate_reg[3]
*288 pe_u/pe1/Accumulate_reg[2]
*289 pe_u/pe1/Accumulate_reg[1]
*290 pe_u/pe1/U3
*291 pe_u/pe1/U4
*292 pe_u/pe1/U5
*293 pe_u/pe1/U10
*294 pe_u/pe1/U11
*295 pe_u/pe1/U12
*296 pe_u/pe1/U14
*297 pe_u/pe1/U16
*298 pe_u/pe1/U17
*299 pe_u/pe1/U18
*300 pe_u/pe1/U19
*301 pe_u/pe1/U20
*302 pe_u/pe1/U21
*303 pe_u/pe1/U22
*304 pe_u/pe1/U23
*305 pe_u/pe1/Rpipe_reg[5]
*306 pe_u/pe1/Rpipe_reg[0]
*307 pe_u/pe1/Rpipe_reg[2]
*308 pe_u/pe1/Rpipe_reg[3]
*309 pe_u/pe1/Rpipe_reg[7]
*310 pe_u/pe1/Rpipe_reg[1]
*311 pe_u/pe1/Rpipe_reg[6]
*312 pe_u/pe1/Rpipe_reg[4]
*313 pe_u/pe1/U7
*314 pe_u/pe1/sub_46/ctmTdsLR_1_0
*315 pe_u/pe1/sub_46/ctmTdsLR_1_1
*316 pe_u/pe1/U13
*317 pe_u/pe1/U6
*318 pe_u/pe2/sub_46/ctmTdsLR_1_16
*319 pe_u/pe1/sub_46/U4
*320 pe_u/pe1/sub_46/ctmTdsLR_2_2627
*321 pe_u/pe1/sub_46/ctmTdsLR_1_2631
*322 pe_u/pe1/sub_46/ctmTdsLR_1_67
*323 pe_u/pe1/sub_46/ctmTdsLR_2_2608_roptpi_2637
*324 pe_u/pe1/sub_46/U9
*325 pe_u/pe1/sub_46/ctmTdsLR_2_2632
*326 pe_u/pe3/sub_46/ctmTdsLR_1_17
*327 pe_u/ZCTSBUF_1768_75
*328 pe_u/pe1/sub_46/ctmTdsLR_1_8
*329 comp_u/ctmTdsLR_2_30_roptpi_2638
*330 optlc_2644
*331 comp_u/ctmTdsLR_2_60
*332 pe_u/pe1/sub_46/ctmTdsLR_1_2609
*333 pe_u/pe1/sub_46/ctmTdsLR_2_2610
*334 pe_u/pe1/sub_46/U17
*335 pe_u/pe1/sub_46/U19
*336 pe_u/pe1/sub_46/ctmTdsLR_1_2605
*337 pe_u/pe1/sub_46/ctmTdsLR_2_2606
*338 pe_u/ZCTSBUF_1930_76
*339 pe_u/pe1/sub_46/ctmTdsLR_1_2611
*340 pe_u/ZCTSBUF_1283_77
*341 ZCTSBUF_1500_78
*342 pe_u/ZCTSBUF_2720_79
*343 pe_u/pe1/sub_46/U30
*344 pe_u/pe1/sub_46/ctmTdsLR_3_2633
*345 pe_u/pe1/sub_46/U32
*346 pe_u/pe1/sub_46/U33
*347 pe_u/pe1/sub_46/U34
*348 pe_u/pe1/sub_46/U35
*349 pe_u/pe4/sub_46/ctmTdsLR_1_18
*350 pe_u/pe0/add_52/ctmTdsLR_1_2613
*351 pe_u/pe0/add_52/ctmTdsLR_2_2614
*352 pe_u/pe1/sub_46/ctmTdsLR_1_12
*353 comp_u/ctmTdsLR_1_66
*354 pe_u/pe5/sub_46/ctmTdsLR_1_19
*355 pe_u/pe6/sub_46/ctmTdsLR_1_20
*356 pe_u/pe1/sub_46/U43
*357 pe_u/pe1/sub_46/U44
*358 pe_u/pe1/sub_46/U45
*359 pe_u/pe1/sub_46/ctmTdsLR_1_13
*360 pe_u/pe1/sub_46/ctmTdsLR_2_2612
*361 pe_u/pe1/sub_46/ctmTdsLR_1_57
*362 comp_u/ctmTdsLR_1_14
*363 pe_u/pe1/add_52/ctmTdsLR_1_32
*364 pe_u/pe1/sub_46/ctmTdsLR_1_6
*365 pe_u/pe7/sub_46/ctmTdsLR_1_21
*366 pe_u/pe8/sub_46/ctmTdsLR_1_22
*367 pe_u/pe9/sub_46/ctmTdsLR_1_23
*368 pe_u/pe10/sub_46/ctmTdsLR_1_24
*369 pe_u/pe11/sub_46/ctmTdsLR_1_25
*370 pe_u/pe1/add_52/U1_7
*371 pe_u/pe1/add_52/U1_6
*372 pe_u/pe1/add_52/U1_5
*373 pe_u/pe1/add_52/U1_4
*374 pe_u/pe1/add_52/U1_3
*375 pe_u/pe1/add_52/U1_2
*376 pe_u/pe1/add_52/U1_1
*377 ZCTSBUF_2915_80
*378 pe_u/pe1/sub_46/ctmTdsLR_3_2628
*379 pe_u/pe1/add_52/U4
*380 pe_u/pe2/Accumulate_reg[0]
*381 pe_u/pe2/Accumulate_reg[7]
*382 pe_u/pe2/Accumulate_reg[6]
*383 pe_u/pe2/Accumulate_reg[5]
*384 pe_u/pe2/Accumulate_reg[4]
*385 pe_u/pe2/Accumulate_reg[3]
*386 pe_u/pe2/Accumulate_reg[2]
*387 pe_u/pe2/Accumulate_reg[1]
*388 pe_u/pe2/U3
*389 pe_u/pe2/U4
*390 pe_u/pe2/U5
*391 pe_u/pe2/U10
*392 pe_u/pe2/U11
*393 pe_u/pe2/U12
*394 pe_u/pe2/U14
*395 pe_u/pe2/U23
*396 pe_u/pe2/Rpipe_reg[5]
*397 pe_u/pe2/Rpipe_reg[0]
*398 pe_u/pe2/Rpipe_reg[2]
*399 pe_u/pe2/Rpipe_reg[3]
*400 pe_u/pe2/Rpipe_reg[6]
*401 pe_u/pe2/Rpipe_reg[4]
*402 pe_u/pe2/Rpipe_reg[7]
*403 pe_u/pe2/Rpipe_reg[1]
*404 pe_u/pe2/U7
*405 pe_u/pe2/U8
*406 pe_u/pe2/U9
*407 pe_u/pe2/U13
*408 pe_u/pe2/U15
*409 pe_u/pe2/U16
*410 pe_u/pe2/U17
*411 pe_u/pe2/U18
*412 pe_u/pe2/U19
*413 pe_u/pe2/U6
*414 pe_u/pe2/add_52/U1_7
*415 pe_u/pe2/add_52/U1_6
*416 pe_u/pe2/add_52/U1_5
*417 pe_u/pe2/add_52/U1_4
*418 pe_u/pe2/add_52/U1_3
*419 pe_u/pe2/add_52/U1_2
*420 pe_u/pe2/add_52/U1_1
*421 pe_u/pe1/sub_46/ctmTdsLR_4_2629
*422 pe_u/pe2/add_52/U4
*423 pe_u/pe2/sub_46/U2_7
*424 pe_u/pe2/sub_46/U2_6
*425 pe_u/pe2/sub_46/U2_5
*426 pe_u/pe2/sub_46/U2_4
*427 pe_u/pe2/sub_46/U2_3
*428 pe_u/pe2/sub_46/U2_2
*429 pe_u/pe2/sub_46/U2_1
*430 pe_u/pe2/add_52/ctmTdsLR_1_33
*431 pe_u/pe3/add_52/ctmTdsLR_1_34
*432 pe_u/pe2/sub_46/U3
*433 pe_u/pe2/sub_46/U4
*434 pe_u/pe2/sub_46/U5
*435 pe_u/pe2/sub_46/U6
*436 pe_u/pe2/sub_46/U7
*437 pe_u/pe2/sub_46/U8
*438 pe_u/pe2/sub_46/U9
*439 pe_u/pe2/sub_46/U10
*440 pe_u/pe2/sub_46/U11
*441 pe_u/pe3/Accumulate_reg[0]
*442 pe_u/pe3/Accumulate_reg[7]
*443 pe_u/pe3/Accumulate_reg[6]
*444 pe_u/pe3/Accumulate_reg[5]
*445 pe_u/pe3/Accumulate_reg[4]
*446 pe_u/pe3/Accumulate_reg[3]
*447 pe_u/pe3/Accumulate_reg[2]
*448 pe_u/pe3/Accumulate_reg[1]
*449 pe_u/pe3/U3
*450 pe_u/pe3/U4
*451 pe_u/pe3/U5
*452 pe_u/pe3/U10
*453 pe_u/pe3/U11
*454 pe_u/pe3/U12
*455 pe_u/pe3/U13
*456 pe_u/pe3/U14
*457 pe_u/pe3/U15
*458 pe_u/pe3/U16
*459 pe_u/pe3/U17
*460 pe_u/pe3/U18
*461 pe_u/pe3/U19
*462 pe_u/pe3/U20
*463 pe_u/pe3/U21
*464 pe_u/pe3/U22
*465 pe_u/pe3/U23
*466 pe_u/pe3/Rpipe_reg[4]
*467 pe_u/pe3/Rpipe_reg[0]
*468 pe_u/pe3/Rpipe_reg[2]
*469 pe_u/pe3/Rpipe_reg[5]
*470 pe_u/pe3/Rpipe_reg[3]
*471 pe_u/pe3/Rpipe_reg[6]
*472 pe_u/pe3/Rpipe_reg[1]
*473 pe_u/pe3/Rpipe_reg[7]
*474 pe_u/pe3/U6
*475 pe_u/pe3/add_52/U1_7
*476 pe_u/pe3/add_52/U1_6
*477 pe_u/pe3/add_52/U1_5
*478 pe_u/pe3/add_52/U1_4
*479 pe_u/pe3/add_52/U1_3
*480 pe_u/pe3/add_52/U1_2
*481 pe_u/pe3/add_52/U1_1
*482 comp_u/ctmTdsLR_2_2616
*483 comp_u/ctmTdsLR_3_2617
*484 comp_u/ctmTdsLR_4_2618
*485 pe_u/pe3/add_52/U4
*486 pe_u/pe3/sub_46/U2_7
*487 pe_u/pe3/sub_46/U2_6
*488 pe_u/pe3/sub_46/U2_5
*489 pe_u/pe3/sub_46/U2_4
*490 pe_u/pe3/sub_46/U2_3
*491 pe_u/pe3/sub_46/U2_2
*492 pe_u/pe3/sub_46/U2_1
*493 pe_u/pe4/add_52/ctmTdsLR_1_35
*494 pe_u/pe5/add_52/ctmTdsLR_1_36
*495 pe_u/pe3/sub_46/U3
*496 pe_u/pe3/sub_46/U4
*497 pe_u/pe3/sub_46/U5
*498 pe_u/pe3/sub_46/U6
*499 pe_u/pe3/sub_46/U7
*500 pe_u/pe3/sub_46/U8
*501 pe_u/pe3/sub_46/U9
*502 pe_u/pe3/sub_46/U10
*503 pe_u/pe3/sub_46/U11
*504 pe_u/pe4/Accumulate_reg[0]
*505 pe_u/pe4/Accumulate_reg[7]
*506 pe_u/pe4/Accumulate_reg[6]
*507 pe_u/pe4/Accumulate_reg[5]
*508 pe_u/pe4/Accumulate_reg[4]
*509 pe_u/pe4/Accumulate_reg[3]
*510 pe_u/pe4/Accumulate_reg[2]
*511 pe_u/pe4/Accumulate_reg[1]
*512 pe_u/pe4/U3
*513 pe_u/pe4/U4
*514 pe_u/pe4/U5
*515 pe_u/pe4/U10
*516 pe_u/pe4/U11
*517 pe_u/pe4/U12
*518 pe_u/pe4/U13
*519 pe_u/pe4/U14
*520 pe_u/pe4/U15
*521 pe_u/pe4/U16
*522 pe_u/pe4/U17
*523 pe_u/pe4/U18
*524 pe_u/pe4/U19
*525 pe_u/pe4/U20
*526 pe_u/pe4/U21
*527 pe_u/pe4/U22
*528 pe_u/pe4/U23
*529 pe_u/pe4/Rpipe_reg[5]
*530 pe_u/pe4/Rpipe_reg[1]
*531 pe_u/pe4/Rpipe_reg[0]
*532 pe_u/pe4/Rpipe_reg[2]
*533 pe_u/pe4/Rpipe_reg[4]
*534 pe_u/pe4/Rpipe_reg[3]
*535 pe_u/pe4/Rpipe_reg[7]
*536 pe_u/pe4/Rpipe_reg[6]
*537 pe_u/pe4/U6
*538 pe_u/pe4/add_52/U1_7
*539 pe_u/pe4/add_52/U1_6
*540 pe_u/pe4/add_52/U1_5
*541 pe_u/pe4/add_52/U1_4
*542 pe_u/pe4/add_52/U1_3
*543 pe_u/pe4/add_52/U1_2
*544 pe_u/pe4/add_52/U1_1
*545 comp_u/ctmTdsLR_6_2620
*546 pe_u/pe1/sub_46/ctmTdsLR_1_2621
*547 pe_u/pe4/add_52/U4
*548 pe_u/pe4/sub_46/U2_7
*549 pe_u/pe4/sub_46/U2_6
*550 pe_u/pe4/sub_46/U2_5
*551 pe_u/pe4/sub_46/U2_4
*552 pe_u/pe4/sub_46/U2_3
*553 pe_u/pe4/sub_46/U2_2
*554 pe_u/pe4/sub_46/U2_1
*555 pe_u/pe6/add_52/ctmTdsLR_1_37
*556 pe_u/pe7/add_52/ctmTdsLR_1_38
*557 pe_u/pe4/sub_46/U3
*558 pe_u/pe4/sub_46/U4
*559 pe_u/pe4/sub_46/U5
*560 pe_u/pe4/sub_46/U6
*561 pe_u/pe4/sub_46/U7
*562 pe_u/pe4/sub_46/U8
*563 pe_u/pe4/sub_46/U9
*564 pe_u/pe4/sub_46/U10
*565 pe_u/pe4/sub_46/U11
*566 pe_u/pe5/Accumulate_reg[0]
*567 pe_u/pe5/Accumulate_reg[7]
*568 pe_u/pe5/Accumulate_reg[6]
*569 pe_u/pe5/Accumulate_reg[5]
*570 pe_u/pe5/Accumulate_reg[4]
*571 pe_u/pe5/Accumulate_reg[3]
*572 pe_u/pe5/Accumulate_reg[2]
*573 pe_u/pe5/Accumulate_reg[1]
*574 pe_u/pe5/U3
*575 pe_u/pe5/U4
*576 pe_u/pe5/U5
*577 pe_u/pe5/U10
*578 pe_u/pe5/U11
*579 pe_u/pe5/U12
*580 pe_u/pe5/U13
*581 pe_u/pe5/U14
*582 pe_u/pe5/U15
*583 pe_u/pe5/U16
*584 pe_u/pe5/U17
*585 pe_u/pe5/U18
*586 pe_u/pe5/U19
*587 pe_u/pe5/U20
*588 pe_u/pe5/U21
*589 pe_u/pe5/U22
*590 pe_u/pe5/U23
*591 pe_u/pe5/Rpipe_reg[0]
*592 pe_u/pe5/Rpipe_reg[2]
*593 pe_u/pe5/Rpipe_reg[3]
*594 pe_u/pe5/Rpipe_reg[5]
*595 pe_u/pe5/Rpipe_reg[7]
*596 pe_u/pe5/Rpipe_reg[1]
*597 pe_u/pe5/Rpipe_reg[6]
*598 pe_u/pe5/Rpipe_reg[4]
*599 pe_u/pe5/U6
*600 pe_u/pe5/add_52/U1_7
*601 pe_u/pe5/add_52/U1_6
*602 pe_u/pe5/add_52/U1_5
*603 pe_u/pe5/add_52/U1_4
*604 pe_u/pe5/add_52/U1_3
*605 pe_u/pe5/add_52/U1_2
*606 pe_u/pe5/add_52/U1_1
*607 pe_u/pe1/sub_46/ctmTdsLR_2_2622
*608 pe_u/pe1/sub_46/ctmTdsLR_3_2623
*609 pe_u/pe1/sub_46/ctmTdsLR_4_2624
*610 pe_u/pe5/add_52/U4
*611 pe_u/pe5/sub_46/U2_7
*612 pe_u/pe5/sub_46/U2_6
*613 pe_u/pe5/sub_46/U2_5
*614 pe_u/pe5/sub_46/U2_4
*615 pe_u/pe5/sub_46/U2_3
*616 pe_u/pe5/sub_46/U2_2
*617 pe_u/pe5/sub_46/U2_1
*618 pe_u/pe8/add_52/ctmTdsLR_1_39
*619 pe_u/pe9/add_52/ctmTdsLR_1_40
*620 pe_u/pe5/sub_46/U3
*621 pe_u/pe5/sub_46/U4
*622 pe_u/pe5/sub_46/U5
*623 pe_u/pe5/sub_46/U6
*624 pe_u/pe5/sub_46/U7
*625 pe_u/pe5/sub_46/U8
*626 pe_u/pe5/sub_46/U9
*627 pe_u/pe5/sub_46/U10
*628 pe_u/pe5/sub_46/U11
*629 pe_u/pe6/Accumulate_reg[0]
*630 pe_u/pe6/Accumulate_reg[7]
*631 pe_u/pe6/Accumulate_reg[6]
*632 pe_u/pe6/Accumulate_reg[5]
*633 pe_u/pe6/Accumulate_reg[4]
*634 pe_u/pe6/Accumulate_reg[3]
*635 pe_u/pe6/Accumulate_reg[2]
*636 pe_u/pe6/Accumulate_reg[1]
*637 pe_u/pe6/U3
*638 pe_u/pe6/U4
*639 pe_u/pe6/U5
*640 pe_u/pe6/U10
*641 pe_u/pe6/U11
*642 pe_u/pe6/U12
*643 pe_u/pe6/U14
*644 pe_u/pe6/U15
*645 pe_u/pe6/U16
*646 pe_u/pe6/U17
*647 pe_u/pe6/U18
*648 pe_u/pe6/U19
*649 pe_u/pe6/U20
*650 pe_u/pe6/U21
*651 pe_u/pe6/U22
*652 pe_u/pe6/U23
*653 pe_u/pe6/Rpipe_reg[4]
*654 pe_u/pe6/Rpipe_reg[0]
*655 pe_u/pe6/Rpipe_reg[2]
*656 pe_u/pe6/Rpipe_reg[3]
*657 pe_u/pe6/Rpipe_reg[7]
*658 pe_u/pe6/Rpipe_reg[6]
*659 pe_u/pe6/Rpipe_reg[5]
*660 pe_u/pe6/Rpipe_reg[1]
*661 pe_u/pe6/U7
*662 pe_u/pe6/U6
*663 pe_u/pe6/add_52/U1_7
*664 pe_u/pe6/add_52/U1_6
*665 pe_u/pe6/add_52/U1_5
*666 pe_u/pe6/add_52/U1_4
*667 pe_u/pe6/add_52/U1_3
*668 pe_u/pe6/add_52/U1_2
*669 pe_u/pe6/add_52/U1_1
*670 pe_u/pe1/sub_46/ctmTdsLR_5_2625
*671 pe_u/pe1/sub_46/ctmTdsLR_5_2630
*672 pe_u/pe6/add_52/U4
*673 pe_u/pe6/sub_46/U2_7
*674 pe_u/pe6/sub_46/U2_6
*675 pe_u/pe6/sub_46/U2_5
*676 pe_u/pe6/sub_46/U2_4
*677 pe_u/pe6/sub_46/U2_3
*678 pe_u/pe6/sub_46/U2_2
*679 pe_u/pe6/sub_46/U2_1
*680 pe_u/pe10/add_52/ctmTdsLR_1_41
*681 pe_u/pe11/add_52/ctmTdsLR_1_42
*682 pe_u/pe6/sub_46/U3
*683 pe_u/pe6/sub_46/U4
*684 pe_u/pe6/sub_46/U5
*685 pe_u/pe6/sub_46/U6
*686 pe_u/pe6/sub_46/U7
*687 pe_u/pe6/sub_46/U8
*688 pe_u/pe6/sub_46/U9
*689 pe_u/pe6/sub_46/U10
*690 pe_u/pe6/sub_46/U11
*691 pe_u/pe7/Accumulate_reg[0]
*692 pe_u/pe7/Accumulate_reg[7]
*693 pe_u/pe7/Accumulate_reg[6]
*694 pe_u/pe7/Accumulate_reg[5]
*695 pe_u/pe7/Accumulate_reg[4]
*696 pe_u/pe7/Accumulate_reg[3]
*697 pe_u/pe7/Accumulate_reg[2]
*698 pe_u/pe7/Accumulate_reg[1]
*699 pe_u/pe7/U3
*700 pe_u/pe7/U4
*701 pe_u/pe7/U5
*702 pe_u/pe7/U10
*703 pe_u/pe7/U11
*704 pe_u/pe7/U12
*705 pe_u/pe7/U14
*706 pe_u/pe7/U15
*707 pe_u/pe7/U16
*708 pe_u/pe7/U17
*709 pe_u/pe7/U18
*710 pe_u/pe7/U19
*711 pe_u/pe7/U20
*712 pe_u/pe7/U21
*713 pe_u/pe7/U22
*714 pe_u/pe7/U23
*715 pe_u/pe7/Rpipe_reg[0]
*716 pe_u/pe7/Rpipe_reg[2]
*717 pe_u/pe7/Rpipe_reg[3]
*718 pe_u/pe7/Rpipe_reg[7]
*719 pe_u/pe7/Rpipe_reg[1]
*720 pe_u/pe7/Rpipe_reg[5]
*721 pe_u/pe7/Rpipe_reg[6]
*722 pe_u/pe7/Rpipe_reg[4]
*723 pe_u/pe7/U7
*724 pe_u/pe7/U6
*725 pe_u/pe7/add_52/U1_7
*726 pe_u/pe7/add_52/U1_6
*727 pe_u/pe7/add_52/U1_5
*728 pe_u/pe7/add_52/U1_4
*729 pe_u/pe7/add_52/U1_3
*730 pe_u/pe7/add_52/U1_2
*731 pe_u/pe7/add_52/U1_1
*732 pe_u/pe1/sub_46/ctmTdsLR_6_2636
*733 pe_u/pe1/sub_46/ctmTdsLR_5_2635_roptpi_2639
*734 pe_u/pe7/add_52/U4
*735 pe_u/pe7/sub_46/U2_7
*736 pe_u/pe7/sub_46/U2_6
*737 pe_u/pe7/sub_46/U2_5
*738 pe_u/pe7/sub_46/U2_4
*739 pe_u/pe7/sub_46/U2_3
*740 pe_u/pe7/sub_46/U2_2
*741 pe_u/pe7/sub_46/U2_1
*742 pe_u/pe12/add_52/ctmTdsLR_1_43
*743 pe_u/pe13/add_52/ctmTdsLR_1_44
*744 pe_u/pe7/sub_46/U3
*745 pe_u/pe7/sub_46/U4
*746 pe_u/pe7/sub_46/U5
*747 pe_u/pe7/sub_46/U6
*748 pe_u/pe7/sub_46/U7
*749 pe_u/pe7/sub_46/U8
*750 pe_u/pe7/sub_46/U9
*751 pe_u/pe7/sub_46/U10
*752 pe_u/pe7/sub_46/U11
*753 pe_u/pe8/Accumulate_reg[0]
*754 pe_u/pe8/Accumulate_reg[7]
*755 pe_u/pe8/Accumulate_reg[6]
*756 pe_u/pe8/Accumulate_reg[5]
*757 pe_u/pe8/Accumulate_reg[4]
*758 pe_u/pe8/Accumulate_reg[3]
*759 pe_u/pe8/Accumulate_reg[2]
*760 pe_u/pe8/Accumulate_reg[1]
*761 pe_u/pe8/U3
*762 pe_u/pe8/U4
*763 pe_u/pe8/U5
*764 pe_u/pe8/U10
*765 pe_u/pe8/U11
*766 pe_u/pe8/U12
*767 pe_u/pe8/U13
*768 pe_u/pe8/U14
*769 pe_u/pe8/U15
*770 pe_u/pe8/U16
*771 pe_u/pe8/U17
*772 pe_u/pe8/U18
*773 pe_u/pe8/U19
*774 pe_u/pe8/U20
*775 pe_u/pe8/U21
*776 pe_u/pe8/U22
*777 pe_u/pe8/U23
*778 pe_u/pe8/Rpipe_reg[5]
*779 pe_u/pe8/Rpipe_reg[3]
*780 pe_u/pe8/Rpipe_reg[0]
*781 pe_u/pe8/Rpipe_reg[2]
*782 pe_u/pe8/Rpipe_reg[6]
*783 pe_u/pe8/Rpipe_reg[4]
*784 pe_u/pe8/Rpipe_reg[1]
*785 pe_u/pe8/Rpipe_reg[7]
*786 pe_u/pe8/U6
*787 pe_u/pe8/add_52/U1_7
*788 pe_u/pe8/add_52/U1_6
*789 pe_u/pe8/add_52/U1_5
*790 pe_u/pe8/add_52/U1_4
*791 pe_u/pe8/add_52/U1_3
*792 pe_u/pe8/add_52/U1_2
*793 pe_u/pe8/add_52/U1_1
*794 pe_u/pe8/add_52/U4
*795 pe_u/pe8/sub_46/U2_7
*796 pe_u/pe8/sub_46/U2_6
*797 pe_u/pe8/sub_46/U2_5
*798 pe_u/pe8/sub_46/U2_4
*799 pe_u/pe8/sub_46/U2_3
*800 pe_u/pe8/sub_46/U2_2
*801 pe_u/pe8/sub_46/U2_1
*802 pe_u/pe14/add_52/ctmTdsLR_1_45
*803 pe_u/pe15/add_77/ctmTdsLR_1_46
*804 pe_u/pe8/sub_46/U3
*805 pe_u/pe8/sub_46/U4
*806 pe_u/pe8/sub_46/U5
*807 pe_u/pe8/sub_46/U6
*808 pe_u/pe8/sub_46/U7
*809 pe_u/pe8/sub_46/U8
*810 pe_u/pe8/sub_46/U9
*811 pe_u/pe8/sub_46/U10
*812 pe_u/pe8/sub_46/U11
*813 pe_u/pe9/Accumulate_reg[0]
*814 pe_u/pe9/Accumulate_reg[7]
*815 pe_u/pe9/Accumulate_reg[6]
*816 pe_u/pe9/Accumulate_reg[5]
*817 pe_u/pe9/Accumulate_reg[4]
*818 pe_u/pe9/Accumulate_reg[3]
*819 pe_u/pe9/Accumulate_reg[2]
*820 pe_u/pe9/Accumulate_reg[1]
*821 pe_u/pe9/U3
*822 pe_u/pe9/U4
*823 pe_u/pe9/U5
*824 pe_u/pe9/U10
*825 pe_u/pe9/U11
*826 pe_u/pe9/U12
*827 pe_u/pe9/U14
*828 pe_u/pe9/U15
*829 pe_u/pe9/U16
*830 pe_u/pe9/U17
*831 pe_u/pe9/U18
*832 pe_u/pe9/U19
*833 pe_u/pe9/U20
*834 pe_u/pe9/U21
*835 pe_u/pe9/U22
*836 pe_u/pe9/U23
*837 pe_u/pe9/Rpipe_reg[4]
*838 pe_u/pe9/Rpipe_reg[0]
*839 pe_u/pe9/Rpipe_reg[2]
*840 pe_u/pe9/Rpipe_reg[3]
*841 pe_u/pe9/Rpipe_reg[7]
*842 pe_u/pe9/Rpipe_reg[1]
*843 pe_u/pe9/Rpipe_reg[6]
*844 pe_u/pe9/Rpipe_reg[5]
*845 pe_u/pe9/U7
*846 pe_u/pe9/U6
*847 pe_u/pe9/add_52/U1_7
*848 pe_u/pe9/add_52/U1_6
*849 pe_u/pe9/add_52/U1_5
*850 pe_u/pe9/add_52/U1_4
*851 pe_u/pe9/add_52/U1_3
*852 pe_u/pe9/add_52/U1_2
*853 pe_u/pe9/add_52/U1_1
*854 pe_u/pe9/add_52/U4
*855 pe_u/pe9/sub_46/U2_7
*856 pe_u/pe9/sub_46/U2_6
*857 pe_u/pe9/sub_46/U2_5
*858 pe_u/pe9/sub_46/U2_4
*859 pe_u/pe9/sub_46/U2_3
*860 pe_u/pe9/sub_46/U2_2
*861 pe_u/pe9/sub_46/U2_1
*862 comp_u/ctmTdsLR_1_48
*863 pe_u/pe9/sub_46/U3
*864 pe_u/pe9/sub_46/U4
*865 pe_u/pe9/sub_46/U5
*866 pe_u/pe9/sub_46/U6
*867 pe_u/pe9/sub_46/U7
*868 pe_u/pe9/sub_46/U8
*869 pe_u/pe9/sub_46/U9
*870 pe_u/pe9/sub_46/U10
*871 pe_u/pe9/sub_46/U11
*872 pe_u/pe10/Accumulate_reg[0]
*873 pe_u/pe10/Accumulate_reg[7]
*874 pe_u/pe10/Accumulate_reg[6]
*875 pe_u/pe10/Accumulate_reg[5]
*876 pe_u/pe10/Accumulate_reg[4]
*877 pe_u/pe10/Accumulate_reg[3]
*878 pe_u/pe10/Accumulate_reg[2]
*879 pe_u/pe10/Accumulate_reg[1]
*880 pe_u/pe10/U3
*881 pe_u/pe10/U4
*882 pe_u/pe10/U5
*883 pe_u/pe10/U10
*884 pe_u/pe10/U11
*885 pe_u/pe10/U12
*886 pe_u/pe10/U13
*887 pe_u/pe10/U14
*888 pe_u/pe10/U15
*889 pe_u/pe10/U16
*890 pe_u/pe10/U18
*891 pe_u/pe10/U19
*892 pe_u/pe10/U20
*893 pe_u/pe10/U21
*894 pe_u/pe10/U22
*895 pe_u/pe10/Rpipe_reg[6]
*896 pe_u/pe10/Rpipe_reg[4]
*897 pe_u/pe10/Rpipe_reg[0]
*898 pe_u/pe10/Rpipe_reg[2]
*899 pe_u/pe10/Rpipe_reg[7]
*900 pe_u/pe10/Rpipe_reg[5]
*901 pe_u/pe10/Rpipe_reg[3]
*902 pe_u/pe10/Rpipe_reg[1]
*903 pe_u/pe10/U7
*904 pe_u/pe10/U8
*905 pe_u/pe10/U6
*906 pe_u/pe10/add_52/U1_7
*907 pe_u/pe10/add_52/U1_6
*908 pe_u/pe10/add_52/U1_5
*909 pe_u/pe10/add_52/U1_4
*910 pe_u/pe10/add_52/U1_3
*911 pe_u/pe10/add_52/U1_2
*912 pe_u/pe10/add_52/U1_1
*913 pe_u/pe10/add_52/U4
*914 pe_u/pe10/sub_46/U2_7
*915 pe_u/pe10/sub_46/U2_6
*916 pe_u/pe10/sub_46/U2_5
*917 pe_u/pe10/sub_46/U2_4
*918 pe_u/pe10/sub_46/U2_3
*919 pe_u/pe10/sub_46/U2_2
*920 pe_u/pe10/sub_46/U2_1
*921 pe_u/pe10/sub_46/U3
*922 pe_u/pe10/sub_46/U4
*923 pe_u/pe10/sub_46/U5
*924 pe_u/pe10/sub_46/U6
*925 pe_u/pe10/sub_46/U7
*926 pe_u/pe10/sub_46/U8
*927 pe_u/pe10/sub_46/U9
*928 pe_u/pe10/sub_46/U10
*929 pe_u/pe10/sub_46/U11
*930 pe_u/pe11/Accumulate_reg[0]
*931 pe_u/pe11/Accumulate_reg[7]
*932 pe_u/pe11/Accumulate_reg[6]
*933 pe_u/pe11/Accumulate_reg[5]
*934 pe_u/pe11/Accumulate_reg[4]
*935 pe_u/pe11/Accumulate_reg[3]
*936 pe_u/pe11/Accumulate_reg[2]
*937 pe_u/pe11/Accumulate_reg[1]
*938 pe_u/pe11/U3
*939 pe_u/pe11/U4
*940 pe_u/pe11/U5
*941 pe_u/pe11/U10
*942 pe_u/pe11/U11
*943 pe_u/pe11/U12
*944 pe_u/pe11/U13
*945 pe_u/pe11/U14
*946 pe_u/pe11/U15
*947 pe_u/pe11/U16
*948 pe_u/pe11/U17
*949 pe_u/pe11/U18
*950 pe_u/pe11/U19
*951 pe_u/pe11/U20
*952 pe_u/pe11/U21
*953 pe_u/pe11/U22
*954 pe_u/pe11/U23
*955 pe_u/pe11/Rpipe_reg[2]
*956 pe_u/pe11/Rpipe_reg[1]
*957 pe_u/pe11/Rpipe_reg[7]
*958 pe_u/pe11/Rpipe_reg[3]
*959 pe_u/pe11/Rpipe_reg[5]
*960 pe_u/pe11/Rpipe_reg[0]
*961 pe_u/pe11/Rpipe_reg[4]
*962 pe_u/pe11/Rpipe_reg[6]
*963 pe_u/pe12/sub_46/ctmTdsLR_1_26
*964 pe_u/pe13/sub_46/ctmTdsLR_1_27
*965 pe_u/pe11/U6
*966 pe_u/pe11/add_52/U1_7
*967 pe_u/pe11/add_52/U1_6
*968 pe_u/pe11/add_52/U1_5
*969 pe_u/pe11/add_52/U1_4
*970 pe_u/pe11/add_52/U1_3
*971 pe_u/pe11/add_52/U1_2
*972 pe_u/pe11/add_52/U1_1
*973 pe_u/pe11/add_52/U4
*974 pe_u/pe11/sub_46/U2_7
*975 pe_u/pe11/sub_46/U2_6
*976 pe_u/pe11/sub_46/U2_5
*977 pe_u/pe11/sub_46/U2_4
*978 pe_u/pe11/sub_46/U2_3
*979 pe_u/pe11/sub_46/U2_2
*980 pe_u/pe11/sub_46/U2_1
*981 pe_u/pe1/sub_46/ctmTdsLR_1_51
*982 pe_u/pe1/sub_46/ctmTdsLR_1_52
*983 pe_u/pe11/sub_46/U3
*984 pe_u/pe11/sub_46/U4
*985 pe_u/pe11/sub_46/U5
*986 pe_u/pe11/sub_46/U6
*987 pe_u/pe11/sub_46/U7
*988 pe_u/pe11/sub_46/U8
*989 pe_u/pe11/sub_46/U9
*990 pe_u/pe11/sub_46/U10
*991 pe_u/pe11/sub_46/U11
*992 pe_u/pe12/Accumulate_reg[0]
*993 pe_u/pe12/Accumulate_reg[7]
*994 pe_u/pe12/Accumulate_reg[6]
*995 pe_u/pe12/Accumulate_reg[5]
*996 pe_u/pe12/Accumulate_reg[4]
*997 pe_u/pe12/Accumulate_reg[3]
*998 pe_u/pe12/Accumulate_reg[2]
*999 pe_u/pe12/Accumulate_reg[1]
*1000 pe_u/pe12/U3
*1001 pe_u/pe12/U4
*1002 pe_u/pe12/U5
*1003 pe_u/pe12/U10
*1004 pe_u/pe12/U11
*1005 pe_u/pe12/U12
*1006 pe_u/pe12/U14
*1007 pe_u/pe12/U15
*1008 pe_u/pe12/U16
*1009 pe_u/pe12/U17
*1010 pe_u/pe12/U18
*1011 pe_u/pe12/U19
*1012 pe_u/pe12/U20
*1013 pe_u/pe12/U21
*1014 pe_u/pe12/U22
*1015 pe_u/pe12/U23
*1016 pe_u/pe12/Rpipe_reg[0]
*1017 pe_u/pe12/Rpipe_reg[2]
*1018 pe_u/pe12/Rpipe_reg[3]
*1019 pe_u/pe12/Rpipe_reg[5]
*1020 pe_u/pe12/Rpipe_reg[7]
*1021 pe_u/pe12/Rpipe_reg[4]
*1022 pe_u/pe12/Rpipe_reg[1]
*1023 pe_u/pe12/Rpipe_reg[6]
*1024 pe_u/pe12/U7
*1025 pe_u/pe12/U6
*1026 pe_u/pe12/add_52/U1_7
*1027 pe_u/pe12/add_52/U1_6
*1028 pe_u/pe12/add_52/U1_5
*1029 pe_u/pe12/add_52/U1_4
*1030 pe_u/pe12/add_52/U1_3
*1031 pe_u/pe12/add_52/U1_2
*1032 pe_u/pe12/add_52/U1_1
*1033 pe_u/pe12/add_52/U4
*1034 pe_u/pe12/sub_46/U2_7
*1035 pe_u/pe12/sub_46/U2_6
*1036 pe_u/pe12/sub_46/U2_5
*1037 pe_u/pe12/sub_46/U2_4
*1038 pe_u/pe12/sub_46/U2_3
*1039 pe_u/pe12/sub_46/U2_2
*1040 pe_u/pe12/sub_46/U2_1
*1041 pe_u/pe12/sub_46/U3
*1042 pe_u/pe12/sub_46/U4
*1043 pe_u/pe12/sub_46/U5
*1044 pe_u/pe12/sub_46/U6
*1045 pe_u/pe12/sub_46/U7
*1046 pe_u/pe12/sub_46/U8
*1047 pe_u/pe12/sub_46/U9
*1048 pe_u/pe12/sub_46/U10
*1049 pe_u/pe12/sub_46/U11
*1050 pe_u/pe13/Accumulate_reg[0]
*1051 pe_u/pe13/Accumulate_reg[7]
*1052 pe_u/pe13/Accumulate_reg[6]
*1053 pe_u/pe13/Accumulate_reg[5]
*1054 pe_u/pe13/Accumulate_reg[4]
*1055 pe_u/pe13/Accumulate_reg[3]
*1056 pe_u/pe13/Accumulate_reg[2]
*1057 pe_u/pe13/Accumulate_reg[1]
*1058 pe_u/pe13/U3
*1059 pe_u/pe13/U4
*1060 pe_u/pe13/U5
*1061 pe_u/pe13/U10
*1062 pe_u/pe13/U11
*1063 pe_u/pe13/U12
*1064 pe_u/pe13/U14
*1065 pe_u/pe13/U15
*1066 pe_u/pe13/U16
*1067 pe_u/pe13/U17
*1068 pe_u/pe13/U18
*1069 pe_u/pe13/U19
*1070 pe_u/pe13/U20
*1071 pe_u/pe13/U21
*1072 pe_u/pe13/U22
*1073 pe_u/pe13/Rpipe_reg[4]
*1074 pe_u/pe13/Rpipe_reg[0]
*1075 pe_u/pe13/Rpipe_reg[2]
*1076 pe_u/pe13/Rpipe_reg[6]
*1077 pe_u/pe13/Rpipe_reg[5]
*1078 pe_u/pe13/Rpipe_reg[1]
*1079 pe_u/pe13/Rpipe_reg[7]
*1080 pe_u/pe13/Rpipe_reg[3]
*1081 pe_u/pe13/U7
*1082 pe_u/pe14/sub_46/ctmTdsLR_1_28
*1083 comp_u/ctmTdsLR_1_29
*1084 pe_u/pe13/U13
*1085 pe_u/pe13/U6
*1086 pe_u/pe13/add_52/U1_7
*1087 pe_u/pe13/add_52/U1_6
*1088 pe_u/pe13/add_52/U1_5
*1089 pe_u/pe13/add_52/U1_4
*1090 pe_u/pe13/add_52/U1_3
*1091 pe_u/pe13/add_52/U1_2
*1092 pe_u/pe13/add_52/U1_1
*1093 pe_u/pe13/add_52/U4
*1094 pe_u/pe13/sub_46/U2_7
*1095 pe_u/pe13/sub_46/U2_6
*1096 pe_u/pe13/sub_46/U2_5
*1097 pe_u/pe13/sub_46/U2_4
*1098 pe_u/pe13/sub_46/U2_3
*1099 pe_u/pe13/sub_46/U2_2
*1100 pe_u/pe13/sub_46/U2_1
*1101 pe_u/pe13/sub_46/U3
*1102 pe_u/pe13/sub_46/U4
*1103 pe_u/pe13/sub_46/U5
*1104 pe_u/pe13/sub_46/U6
*1105 pe_u/pe13/sub_46/U7
*1106 pe_u/pe13/sub_46/U8
*1107 pe_u/pe13/sub_46/U9
*1108 pe_u/pe13/sub_46/U10
*1109 pe_u/pe13/sub_46/U11
*1110 pe_u/pe14/Accumulate_reg[0]
*1111 pe_u/pe14/Accumulate_reg[7]
*1112 pe_u/pe14/Accumulate_reg[6]
*1113 pe_u/pe14/Accumulate_reg[5]
*1114 pe_u/pe14/Accumulate_reg[4]
*1115 pe_u/pe14/Accumulate_reg[3]
*1116 pe_u/pe14/Accumulate_reg[2]
*1117 pe_u/pe14/Accumulate_reg[1]
*1118 pe_u/pe14/U3
*1119 pe_u/pe14/U4
*1120 pe_u/pe14/U5
*1121 pe_u/pe14/U10
*1122 pe_u/pe14/U11
*1123 pe_u/pe14/U12
*1124 pe_u/pe14/U14
*1125 pe_u/pe14/U15
*1126 pe_u/pe14/U16
*1127 pe_u/pe14/U17
*1128 pe_u/pe14/U18
*1129 pe_u/pe14/U19
*1130 pe_u/pe14/U20
*1131 pe_u/pe14/U21
*1132 pe_u/pe14/U22
*1133 pe_u/pe14/U23
*1134 pe_u/pe14/Rpipe_reg[4]
*1135 pe_u/pe14/Rpipe_reg[1]
*1136 pe_u/pe14/Rpipe_reg[0]
*1137 pe_u/pe14/Rpipe_reg[7]
*1138 pe_u/pe14/Rpipe_reg[3]
*1139 pe_u/pe14/Rpipe_reg[2]
*1140 pe_u/pe14/Rpipe_reg[5]
*1141 pe_u/pe14/Rpipe_reg[6]
*1142 pe_u/pe14/U7
*1143 pe_u/pe14/U6
*1144 pe_u/pe14/add_52/U1_7
*1145 pe_u/pe14/add_52/U1_6
*1146 pe_u/pe14/add_52/U1_5
*1147 pe_u/pe14/add_52/U1_4
*1148 pe_u/pe14/add_52/U1_3
*1149 pe_u/pe14/add_52/U1_2
*1150 pe_u/pe14/add_52/U1_1
*1151 pe_u/pe14/add_52/U4
*1152 pe_u/pe14/sub_46/U2_7
*1153 pe_u/pe14/sub_46/U2_6
*1154 pe_u/pe14/sub_46/U2_5
*1155 pe_u/pe14/sub_46/U2_4
*1156 pe_u/pe14/sub_46/U2_3
*1157 pe_u/pe14/sub_46/U2_2
*1158 pe_u/pe14/sub_46/U2_1
*1159 pe_u/pe14/sub_46/U3
*1160 pe_u/pe14/sub_46/U4
*1161 pe_u/pe14/sub_46/U5
*1162 pe_u/pe14/sub_46/U6
*1163 pe_u/pe14/sub_46/U7
*1164 pe_u/pe14/sub_46/U8
*1165 pe_u/pe14/sub_46/U9
*1166 pe_u/pe14/sub_46/U10
*1167 pe_u/pe14/sub_46/U11
*1168 pe_u/pe15/Accumulate_reg[0]
*1169 pe_u/pe15/Accumulate_reg[7]
*1170 pe_u/pe15/Accumulate_reg[6]
*1171 pe_u/pe15/Accumulate_reg[5]
*1172 pe_u/pe15/Accumulate_reg[4]
*1173 pe_u/pe15/Accumulate_reg[3]
*1174 pe_u/pe15/Accumulate_reg[2]
*1175 pe_u/pe15/Accumulate_reg[1]
*1176 pe_u/pe15/U3
*1177 pe_u/pe15/U4
*1178 pe_u/pe15/U5
*1179 pe_u/pe15/U10
*1180 pe_u/pe15/U11
*1181 pe_u/pe15/U12
*1182 pe_u/pe15/U13
*1183 pe_u/pe15/U14
*1184 pe_u/pe15/U15
*1185 pe_u/pe15/U16
*1186 pe_u/pe15/U17
*1187 pe_u/pe15/U18
*1188 pe_u/pe15/U19
*1189 pe_u/pe15/U20
*1190 pe_u/pe15/U21
*1191 pe_u/pe15/U22
*1192 pe_u/pe15/U23
*1193 pe_u/pe15/U6
*1194 pe_u/pe15/add_77/U1_1
*1195 pe_u/pe15/add_77/U1_3
*1196 pe_u/pe15/add_77/U1_2
*1197 pe_u/pe15/add_77/U1_4
*1198 pe_u/pe15/add_77/U1_6
*1199 pe_u/pe15/add_77/U1_7
*1200 pe_u/pe15/add_77/U1_5
*1201 pe_u/pe15/add_77/U4
*1202 pe_u/pe15/sub_71/U2_4
*1203 pe_u/pe15/sub_71/U2_6
*1204 pe_u/pe15/sub_71/U2_7
*1205 pe_u/pe15/sub_71/U2_3
*1206 pe_u/pe15/sub_71/U2_1
*1207 pe_u/pe15/sub_71/U2_2
*1208 pe_u/pe15/sub_71/U2_5
*1209 pe_u/pe15/sub_71/U3
*1210 pe_u/pe15/sub_71/U4
*1211 pe_u/pe15/sub_71/U5
*1212 pe_u/pe15/sub_71/U6
*1213 pe_u/pe15/sub_71/U7
*1214 pe_u/pe15/sub_71/U8
*1215 pe_u/pe15/sub_71/U9
*1216 pe_u/pe15/sub_71/U10
*1217 pe_u/pe15/sub_71/U11
*1218 pe_u/pe15/sub_71/U12
*1219 comp_u/U3
*1220 comp_u/U5
*1221 comp_u/U6
*1222 comp_u/U7
*1223 comp_u/U8
*1224 comp_u/U9
*1225 comp_u/U10
*1226 comp_u/U11
*1227 comp_u/U18
*1228 comp_u/U19
*1229 comp_u/U22
*1230 comp_u/U23
*1231 comp_u/U24
*1232 comp_u/U29
*1233 comp_u/U30
*1234 comp_u/U31
*1235 comp_u/U32
*1236 comp_u/U33
*1237 comp_u/U34
*1238 comp_u/U35
*1239 comp_u/U38
*1240 comp_u/U39
*1241 comp_u/U40
*1242 comp_u/U41
*1243 comp_u/U42
*1244 comp_u/U43
*1245 comp_u/U44
*1246 comp_u/U45
*1247 comp_u/U46
*1248 comp_u/U47
*1249 comp_u/U51
*1250 comp_u/U52
*1251 comp_u/U53
*1252 comp_u/U54
*1253 comp_u/U55
*1254 comp_u/U56
*1255 comp_u/U57
*1256 comp_u/U58
*1257 comp_u/U59
*1258 comp_u/U62